20
8038
O          1.20420       -0.40180       -0.26280
O          3.09460       -1.27600       -0.27200
C         -0.58340        1.26900       -0.20190
C         -0.12320       -0.21320       -0.26460
C         -2.13510        1.33660       -0.25880
C         -0.02640        2.02120        1.03590
C          1.88360       -1.44530       -0.26780
C          1.39440       -2.81220       -0.26100
H         -0.20100        1.78070       -1.09140
H         -0.52400       -0.66130       -1.17980
H         -0.55400       -0.73700        0.59460
H         -2.51240        0.85120       -1.16200
H         -2.48930        2.36830       -0.27020
H         -2.57940        0.83250        0.60290
H         -0.36730        3.05860        1.04740
H          1.06510        2.03660        1.02310
H         -0.35070        1.54550        1.96380
H          1.74540       -3.32910        0.63350
H          1.75290       -3.34440       -1.14320
H          0.30590       -2.87980       -0.26550
